Circuit: * Este es un circuito sencillo adaptado para LTspice


Date: Sat Dec 19 13:59:27 2020
Total elapsed time: 0.022 seconds.

tnom = 27
temp = 27
method = trap
totiter = 2003
traniter = 0
tranpoints = 0
accept = 0
rejected = 0
matrix size = 2
fillins = 0
solver = Normal
Matrix Compiler1:       2 opcodes  0.0/[0.0]/0.1
Matrix Compiler2: off  [0.0]/0.0/0.0

