Circuit: * Este es un circuito sencillo

.OP point found by inspection.

Date: Wed Dec 09 23:09:29 2020
Total elapsed time: 0.034 seconds.

tnom = 27
temp = 27
method = trap
totiter = 18
traniter = 0
tranpoints = 0
accept = 0
rejected = 0
matrix size = 2
fillins = 0
solver = Normal
Matrix Compiler1: 36 bytes object code size
Matrix Compiler2: 96 bytes object code size
