Circuit: * Carga condensador

Per .tran options, skipping operating point for transient analysis.

Date: Mon Jan 04 23:57:13 2021
Total elapsed time: 0.009 seconds.

tnom = 27
temp = 27
method = modified trap
totiter = 1870
traniter = 1870
tranpoints = 936
accept = 932
rejected = 4
matrix size = 3
fillins = 0
solver = Normal
Matrix Compiler1:       5 opcodes  0.0/[0.0]/0.0
Matrix Compiler2: 163 bytes object code size  0.0/0.0/[0.0]

