Circuit: * Circuito en corriente alterna

.OP point found by inspection.

Date: Tue Jan 05 12:32:13 2021
Total elapsed time: 0.035 seconds.

tnom = 27
temp = 27
method = modified trap
totiter = 2082
traniter = 2082
tranpoints = 1042
accept = 1042
rejected = 0
matrix size = 2
fillins = 0
solver = Normal
Matrix Compiler1:       2 opcodes  0.0/[0.0]/0.1
Matrix Compiler2:       9 opcodes  0.1/[0.0]/0.1

