Circuit: * Carga condensador

Per .tran options, skipping operating point for transient analysis.

Date: Tue Jan 05 12:46:16 2021
Total elapsed time: 0.016 seconds.

tnom = 27
temp = 27
method = modified trap
totiter = 1870
traniter = 1870
tranpoints = 936
accept = 932
rejected = 4
matrix size = 3
fillins = 0
solver = Normal
Matrix Compiler1: off  [0.0]/0.1/0.1
Matrix Compiler2: off  [0.0]/0.1/0.0

