Circuit: * Este es un circuito sencillo adaptado para LTspice

.dc: Increment so large that there's only one step.

Date: Sat Jan 02 19:54:36 2021
Total elapsed time: 0.010 seconds.

tnom = 27
temp = 27
method = trap
totiter = 5
traniter = 0
tranpoints = 0
accept = 0
rejected = 0
matrix size = 2
fillins = 0
solver = Normal
Matrix Compiler1: 36 bytes object code size
Matrix Compiler2: 96 bytes object code size
