Circuit: * Circuito en corriente alterna

.OP point found by inspection.

Date: Sat Jan 02 20:45:16 2021
Total elapsed time: 0.028 seconds.

tnom = 27
temp = 27
method = modified trap
totiter = 2082
traniter = 2082
tranpoints = 1042
accept = 1042
rejected = 0
matrix size = 2
fillins = 0
solver = Normal
Matrix Compiler1: 36 bytes object code size  0.0/0.0/[0.0]
Matrix Compiler2: 96 bytes object code size  0.0/0.1/[0.0]

