Circuit: * Circuito en corriente alterna

.OP point found by inspection.

Date: Thu Dec 17 11:11:14 2020
Total elapsed time: 0.017 seconds.

tnom = 27
temp = 27
method = modified trap
totiter = 4128
traniter = 4128
tranpoints = 2065
accept = 1532
rejected = 533
matrix size = 2
fillins = 0
solver = Normal
Matrix Compiler1: 36 bytes object code size  0.0/0.0/[0.0]
Matrix Compiler2: off  [0.0]/0.0/0.0

