Circuit: * Carga condensador

Per .tran options, skipping operating point for transient analysis.

Date: Sat Jan 02 19:51:32 2021
Total elapsed time: 0.026 seconds.

tnom = 27
temp = 27
method = modified trap
totiter = 1870
traniter = 1870
tranpoints = 936
accept = 932
rejected = 4
matrix size = 3
fillins = 0
solver = Normal
Matrix Compiler1:       5 opcodes  0.0/[0.0]/0.1
Matrix Compiler2: off  [0.0]/0.1/0.0

